Conversion/Nando_final/dss_files/net_4_Urban_CRE21/10_Loads.dss
New Load.mv_f0_lv0_f0_c0 phases=1 bus1=mv_f0_lv0_f0_c0.2 kw=1 conn=wye kv=0.23 pf=0.95 model=1 vminpu=0.0 vmaxpu=2 status=variable daily=Load_shape_res_0 enabled=true
New Load.mv_f0_lv0_f0_c1 phases=1 bus1=mv_f0_lv0_f0_c1.1 kw=1 conn=wye kv=0.23 pf=0.95 model=1 vminpu=0.0 vmaxpu=2 status=variable daily=Load_shape_res_1 enabled=true
New Load.mv_f0_lv0_f0_c2 phases=1 bus1=mv_f0_lv0_f0_c2.1 kw=1 conn=wye kv=0.23 pf=0.95 model=1 vminpu=0.0 vmaxpu=2 status=variable daily=Load_shape_res_2 enabled=true
New Load.mv_f0_lv0_f0_c3 phases=1 bus1=mv_f0_lv0_f0_c3.1 kw=1 conn=wye kv=0.23 pf=0.95 model=1 vminpu=0.0 vmaxpu=2 status=variable daily=Load_shape_res_3 enabled=true
New Load.mv_f0_lv0_f0_c4 phases=1 bus1=mv_f0_lv0_f0_c4.1 kw=1 conn=wye kv=0.23 pf=0.95 model=1 vminpu=0.0 vmaxpu=2 status=variable daily=Load_shape_res_4 enabled=true
New Load.mv_f0_lv0_f0_c5 phases=1 bus1=mv_f0_lv0_f0_c5.1 kw=1 conn=wye kv=0.23 pf=0.95 model=1 vminpu=0.0 vmaxpu=2 status=variable daily=Load_shape_res_5 enabled=true
New Load.mv_f0_lv0_f0_c6 phases=1 bus1=mv_f0_lv0_f0_c6.2 kw=1 conn=wye kv=0.23 pf=0.95 model=1 vminpu=0.0 vmaxpu=2 status=variable daily=Load_shape_res_6 enabled=true
New Load.mv_f0_lv0_f0_c7 phases=1 bus1=mv_f0_lv0_f0_c7.1 kw=1 conn=wye kv=0.23 pf=0.95 model=1 vminpu=0.0 vmaxpu=2 status=variable daily=Load_shape_res_7 enabled=true
New Load.mv_f0_lv0_f0_c8 phases=1 bus1=mv_f0_lv0_f0_c8.3 kw=1 conn=wye kv=0.23 pf=0.95 model=1 vminpu=0.0 vmaxpu=2 status=variable daily=Load_shape_res_8 enabled=true
New Load.mv_f0_lv0_f0_c9 phases=1 bus1=mv_f0_lv0_f0_c9.1 kw=1 conn=wye kv=0.23 pf=0.95 model=1 vminpu=0.0 vmaxpu=2 status=variable daily=Load_shape_res_9 enabled=true
New Load.mv_f0_lv0_f0_c10 phases=1 bus1=mv_f0_lv0_f0_c10.2 kw=1 conn=wye kv=0.23 pf=0.95 model=1 vminpu=0.0 vmaxpu=2 status=variable daily=Load_shape_res_10 enabled=true
New Load.mv_f0_lv0_f0_c11 phases=1 bus1=mv_f0_lv0_f0_c11.1 kw=1 conn=wye kv=0.23 pf=0.95 model=1 vminpu=0.0 vmaxpu=2 status=variable daily=Load_shape_res_11 enabled=true
New Load.mv_f0_lv1_f0_c0 phases=1 bus1=mv_f0_lv1_f0_c0.1 kw=1 conn=wye kv=0.23 pf=0.95 model=1 vminpu=0.0 vmaxpu=2 status=variable daily=Load_shape_res_12 enabled=true
New Load.mv_f0_lv1_f0_c1 phases=1 bus1=mv_f0_lv1_f0_c1.2 kw=1 conn=wye kv=0.23 pf=0.95 model=1 vminpu=0.0 vmaxpu=2 status=variable daily=Load_shape_res_13 enabled=true
New Load.mv_f0_lv1_f0_c2 phases=1 bus1=mv_f0_lv1_f0_c2.1 kw=1 conn=wye kv=0.23 pf=0.95 model=1 vminpu=0.0 vmaxpu=2 status=variable daily=Load_shape_res_14 enabled=true
New Load.mv_f0_lv2_f0_c0 phases=1 bus1=mv_f0_lv2_f0_c0.3 kw=1 conn=wye kv=0.23 pf=0.95 model=1 vminpu=0.0 vmaxpu=2 status=variable daily=Load_shape_res_15 enabled=true
New Load.mv_f0_lv2_f0_c1 phases=1 bus1=mv_f0_lv2_f0_c1.1 kw=1 conn=wye kv=0.23 pf=0.95 model=1 vminpu=0.0 vmaxpu=2 status=variable daily=Load_shape_res_16 enabled=true
New Load.mv_f0_lv2_f0_c2 phases=1 bus1=mv_f0_lv2_f0_c2.2 kw=1 conn=wye kv=0.23 pf=0.95 model=1 vminpu=0.0 vmaxpu=2 status=variable daily=Load_shape_res_17 enabled=true
New Load.mv_f0_lv2_f0_c3 phases=1 bus1=mv_f0_lv2_f0_c3.3 kw=1 conn=wye kv=0.23 pf=0.95 model=1 vminpu=0.0 vmaxpu=2 status=variable daily=Load_shape_res_18 enabled=true
New Load.mv_f0_lv2_f0_c4 phases=1 bus1=mv_f0_lv2_f0_c4.1 kw=1 conn=wye kv=0.23 pf=0.95 model=1 vminpu=0.0 vmaxpu=2 status=variable daily=Load_shape_res_19 enabled=true
New Load.mv_f0_lv2_f0_c5 phases=1 bus1=mv_f0_lv2_f0_c5.2 kw=1 conn=wye kv=0.23 pf=0.95 model=1 vminpu=0.0 vmaxpu=2 status=variable daily=Load_shape_res_20 enabled=true
New Load.mv_f0_lv2_f0_c6 phases=1 bus1=mv_f0_lv2_f0_c6.2 kw=1 conn=wye kv=0.23 pf=0.95 model=1 vminpu=0.0 vmaxpu=2 status=variable daily=Load_shape_res_21 enabled=true
New Load.mv_f0_lv2_f0_c7 phases=1 bus1=mv_f0_lv2_f0_c7.2 kw=1 conn=wye kv=0.23 pf=0.95 model=1 vminpu=0.0 vmaxpu=2 status=variable daily=Load_shape_res_22 enabled=true
New Load.mv_f0_lv2_f0_c8 phases=1 bus1=mv_f0_lv2_f0_c8.3 kw=1 conn=wye kv=0.23 pf=0.95 model=1 vminpu=0.0 vmaxpu=2 status=variable daily=Load_shape_res_23 enabled=true
New Load.mv_f0_lv3_f0_c0 phases=1 bus1=mv_f0_lv3_f0_c0.3 kw=1 conn=wye kv=0.23 pf=0.95 model=1 vminpu=0.0 vmaxpu=2 status=variable daily=Load_shape_res_24 enabled=true
New Load.mv_f0_lv3_f0_c1 phases=1 bus1=mv_f0_lv3_f0_c1.2 kw=1 conn=wye kv=0.23 pf=0.95 model=1 vminpu=0.0 vmaxpu=2 status=variable daily=Load_shape_res_25 enabled=true
New Load.mv_f0_lv3_f0_c2 phases=1 bus1=mv_f0_lv3_f0_c2.2 kw=1 conn=wye kv=0.23 pf=0.95 model=1 vminpu=0.0 vmaxpu=2 status=variable daily=Load_shape_res_26 enabled=true
New Load.mv_f0_lv3_f0_c3 phases=1 bus1=mv_f0_lv3_f0_c3.1 kw=1 conn=wye kv=0.23 pf=0.95 model=1 vminpu=0.0 vmaxpu=2 status=variable daily=Load_shape_res_27 enabled=true
New Load.mv_f0_lv3_f0_c4 phases=1 bus1=mv_f0_lv3_f0_c4.2 kw=1 conn=wye kv=0.23 pf=0.95 model=1 vminpu=0.0 vmaxpu=2 status=variable daily=Load_shape_res_28 enabled=true
New Load.mv_f0_lv3_f0_c5 phases=1 bus1=mv_f0_lv3_f0_c5.3 kw=1 conn=wye kv=0.23 pf=0.95 model=1 vminpu=0.0 vmaxpu=2 status=variable daily=Load_shape_res_29 enabled=true
New Load.mv_f0_lv3_f0_c6 phases=1 bus1=mv_f0_lv3_f0_c6.2 kw=1 conn=wye kv=0.23 pf=0.95 model=1 vminpu=0.0 vmaxpu=2 status=variable daily=Load_shape_res_30 enabled=true
New Load.mv_f0_lv3_f0_c7 phases=1 bus1=mv_f0_lv3_f0_c7.1 kw=1 conn=wye kv=0.23 pf=0.95 model=1 vminpu=0.0 vmaxpu=2 status=variable daily=Load_shape_res_31 enabled=true
New Load.mv_f0_lv3_f0_c8 phases=1 bus1=mv_f0_lv3_f0_c8.2 kw=1 conn=wye kv=0.23 pf=0.95 model=1 vminpu=0.0 vmaxpu=2 status=variable daily=Load_shape_res_32 enabled=true
New Load.mv_f0_lv3_f0_c9 phases=1 bus1=mv_f0_lv3_f0_c9.2 kw=1 conn=wye kv=0.23 pf=0.95 model=1 vminpu=0.0 vmaxpu=2 status=variable daily=Load_shape_res_33 enabled=true
New Load.mv_f0_lv3_f0_c10 phases=1 bus1=mv_f0_lv3_f0_c10.3 kw=1 conn=wye kv=0.23 pf=0.95 model=1 vminpu=0.0 vmaxpu=2 status=variable daily=Load_shape_res_34 enabled=true
New Load.mv_f0_lv3_f0_c11 phases=1 bus1=mv_f0_lv3_f0_c11.3 kw=1 conn=wye kv=0.23 pf=0.95 model=1 vminpu=0.0 vmaxpu=2 status=variable daily=Load_shape_res_35 enabled=true
New Load.mv_f0_lv3_f0_c12 phases=1 bus1=mv_f0_lv3_f0_c12.2 kw=1 conn=wye kv=0.23 pf=0.95 model=1 vminpu=0.0 vmaxpu=2 status=variable daily=Load_shape_res_36 enabled=true
New Load.mv_f0_lv3_f0_c13 phases=1 bus1=mv_f0_lv3_f0_c13.2 kw=1 conn=wye kv=0.23 pf=0.95 model=1 vminpu=0.0 vmaxpu=2 status=variable daily=Load_shape_res_37 enabled=true
New Load.mv_f0_lv3_f0_c14 phases=1 bus1=mv_f0_lv3_f0_c14.1 kw=1 conn=wye kv=0.23 pf=0.95 model=1 vminpu=0.0 vmaxpu=2 status=variable daily=Load_shape_res_38 enabled=true
New Load.mv_f0_lv3_f0_c15 phases=1 bus1=mv_f0_lv3_f0_c15.1 kw=1 conn=wye kv=0.23 pf=0.95 model=1 vminpu=0.0 vmaxpu=2 status=variable daily=Load_shape_res_39 enabled=true
New Load.mv_f0_lv3_f0_c16 phases=1 bus1=mv_f0_lv3_f0_c16.3 kw=1 conn=wye kv=0.23 pf=0.95 model=1 vminpu=0.0 vmaxpu=2 status=variable daily=Load_shape_res_40 enabled=true
New Load.mv_f0_lv3_f0_c17 phases=1 bus1=mv_f0_lv3_f0_c17.3 kw=1 conn=wye kv=0.23 pf=0.95 model=1 vminpu=0.0 vmaxpu=2 status=variable daily=Load_shape_res_41 enabled=true
New Load.mv_f0_lv3_f0_c18 phases=1 bus1=mv_f0_lv3_f0_c18.1 kw=1 conn=wye kv=0.23 pf=0.95 model=1 vminpu=0.0 vmaxpu=2 status=variable daily=Load_shape_res_42 enabled=true
New Load.mv_f0_lv3_f0_c19 phases=1 bus1=mv_f0_lv3_f0_c19.2 kw=1 conn=wye kv=0.23 pf=0.95 model=1 vminpu=0.0 vmaxpu=2 status=variable daily=Load_shape_res_43 enabled=true
New Load.mv_f0_lv3_f0_c20 phases=1 bus1=mv_f0_lv3_f0_c20.1 kw=1 conn=wye kv=0.23 pf=0.95 model=1 vminpu=0.0 vmaxpu=2 status=variable daily=Load_shape_res_44 enabled=true
New Load.mv_f0_lv3_f0_c21 phases=1 bus1=mv_f0_lv3_f0_c21.1 kw=1 conn=wye kv=0.23 pf=0.95 model=1 vminpu=0.0 vmaxpu=2 status=variable daily=Load_shape_res_45 enabled=true
New Load.mv_f0_lv3_f0_c22 phases=1 bus1=mv_f0_lv3_f0_c22.1 kw=1 conn=wye kv=0.23 pf=0.95 model=1 vminpu=0.0 vmaxpu=2 status=variable daily=Load_shape_res_46 enabled=true
New Load.mv_f0_lv3_f0_c23 phases=1 bus1=mv_f0_lv3_f0_c23.1 kw=1 conn=wye kv=0.23 pf=0.95 model=1 vminpu=0.0 vmaxpu=2 status=variable daily=Load_shape_res_47 enabled=true
New Load.mv_f0_lv3_f0_c24 phases=1 bus1=mv_f0_lv3_f0_c24.3 kw=1 conn=wye kv=0.23 pf=0.95 model=1 vminpu=0.0 vmaxpu=2 status=variable daily=Load_shape_res_48 enabled=true
New Load.mv_f0_lv3_f0_c25 phases=1 bus1=mv_f0_lv3_f0_c25.1 kw=1 conn=wye kv=0.23 pf=0.95 model=1 vminpu=0.0 vmaxpu=2 status=variable daily=Load_shape_res_49 enabled=true
New Load.mv_f0_lv3_f0_c26 phases=1 bus1=mv_f0_lv3_f0_c26.3 kw=1 conn=wye kv=0.23 pf=0.95 model=1 vminpu=0.0 vmaxpu=2 status=variable daily=Load_shape_res_50 enabled=true
New Load.mv_f0_lv3_f0_c27 phases=1 bus1=mv_f0_lv3_f0_c27.2 kw=1 conn=wye kv=0.23 pf=0.95 model=1 vminpu=0.0 vmaxpu=2 status=variable daily=Load_shape_res_51 enabled=true
New Load.mv_f0_lv3_f0_c28 phases=1 bus1=mv_f0_lv3_f0_c28.2 kw=1 conn=wye kv=0.23 pf=0.95 model=1 vminpu=0.0 vmaxpu=2 status=variable daily=Load_shape_res_52 enabled=true
New Load.mv_f0_lv3_f0_c29 phases=1 bus1=mv_f0_lv3_f0_c29.3 kw=1 conn=wye kv=0.23 pf=0.95 model=1 vminpu=0.0 vmaxpu=2 status=variable daily=Load_shape_res_53 enabled=true
New Load.mv_f0_lv3_f0_c30 phases=1 bus1=mv_f0_lv3_f0_c30.3 kw=1 conn=wye kv=0.23 pf=0.95 model=1 vminpu=0.0 vmaxpu=2 status=variable daily=Load_shape_res_54 enabled=true
New Load.mv_f0_lv3_f0_c31 phases=1 bus1=mv_f0_lv3_f0_c31.2 kw=1 conn=wye kv=0.23 pf=0.95 model=1 vminpu=0.0 vmaxpu=2 status=variable daily=Load_shape_res_55 enabled=true
New Load.mv_f0_lv3_f0_c32 phases=1 bus1=mv_f0_lv3_f0_c32.2 kw=1 conn=wye kv=0.23 pf=0.95 model=1 vminpu=0.0 vmaxpu=2 status=variable daily=Load_shape_res_56 enabled=true
New Load.mv_f0_lv3_f0_c33 phases=1 bus1=mv_f0_lv3_f0_c33.1 kw=1 conn=wye kv=0.23 pf=0.95 model=1 vminpu=0.0 vmaxpu=2 status=variable daily=Load_shape_res_57 enabled=true
New Load.mv_f0_lv3_f0_c34 phases=1 bus1=mv_f0_lv3_f0_c34.2 kw=1 conn=wye kv=0.23 pf=0.95 model=1 vminpu=0.0 vmaxpu=2 status=variable daily=Load_shape_res_58 enabled=true
New Load.mv_f0_lv3_f0_c35 phases=1 bus1=mv_f0_lv3_f0_c35.1 kw=1 conn=wye kv=0.23 pf=0.95 model=1 vminpu=0.0 vmaxpu=2 status=variable daily=Load_shape_res_59 enabled=true
New Load.mv_f0_lv3_f0_c36 phases=1 bus1=mv_f0_lv3_f0_c36.2 kw=1 conn=wye kv=0.23 pf=0.95 model=1 vminpu=0.0 vmaxpu=2 status=variable daily=Load_shape_res_60 enabled=true
New Load.mv_f0_lv3_f0_c37 phases=1 bus1=mv_f0_lv3_f0_c37.3 kw=1 conn=wye kv=0.23 pf=0.95 model=1 vminpu=0.0 vmaxpu=2 status=variable daily=Load_shape_res_61 enabled=true
New Load.mv_f0_lv3_f0_c38 phases=1 bus1=mv_f0_lv3_f0_c38.2 kw=1 conn=wye kv=0.23 pf=0.95 model=1 vminpu=0.0 vmaxpu=2 status=variable daily=Load_shape_res_62 enabled=true
New Load.mv_f0_lv3_f0_c39 phases=1 bus1=mv_f0_lv3_f0_c39.1 kw=1 conn=wye kv=0.23 pf=0.95 model=1 vminpu=0.0 vmaxpu=2 status=variable daily=Load_shape_res_63 enabled=true
New Load.mv_f0_lv3_f1_c0 phases=1 bus1=mv_f0_lv3_f1_c0.1 kw=1 conn=wye kv=0.23 pf=0.95 model=1 vminpu=0.0 vmaxpu=2 status=variable daily=Load_shape_res_64 enabled=true
New Load.mv_f0_lv3_f1_c1 phases=1 bus1=mv_f0_lv3_f1_c1.3 kw=1 conn=wye kv=0.23 pf=0.95 model=1 vminpu=0.0 vmaxpu=2 status=variable daily=Load_shape_res_65 enabled=true
New Load.mv_f0_lv3_f1_c2 phases=1 bus1=mv_f0_lv3_f1_c2.3 kw=1 conn=wye kv=0.23 pf=0.95 model=1 vminpu=0.0 vmaxpu=2 status=variable daily=Load_shape_res_66 enabled=true
New Load.mv_f0_lv3_f1_c3 phases=1 bus1=mv_f0_lv3_f1_c3.1 kw=1 conn=wye kv=0.23 pf=0.95 model=1 vminpu=0.0 vmaxpu=2 status=variable daily=Load_shape_res_67 enabled=true
New Load.mv_f0_lv3_f1_c4 phases=1 bus1=mv_f0_lv3_f1_c4.3 kw=1 conn=wye kv=0.23 pf=0.95 model=1 vminpu=0.0 vmaxpu=2 status=variable daily=Load_shape_res_68 enabled=true
New Load.mv_f0_lv3_f1_c5 phases=1 bus1=mv_f0_lv3_f1_c5.2 kw=1 conn=wye kv=0.23 pf=0.95 model=1 vminpu=0.0 vmaxpu=2 status=variable daily=Load_shape_res_69 enabled=true
New Load.mv_f0_lv3_f1_c6 phases=1 bus1=mv_f0_lv3_f1_c6.1 kw=1 conn=wye kv=0.23 pf=0.95 model=1 vminpu=0.0 vmaxpu=2 status=variable daily=Load_shape_res_70 enabled=true
New Load.mv_f0_lv3_f1_c7 phases=1 bus1=mv_f0_lv3_f1_c7.2 kw=1 conn=wye kv=0.23 pf=0.95 model=1 vminpu=0.0 vmaxpu=2 status=variable daily=Load_shape_res_71 enabled=true
New Load.mv_f0_lv3_f1_c8 phases=1 bus1=mv_f0_lv3_f1_c8.3 kw=1 conn=wye kv=0.23 pf=0.95 model=1 vminpu=0.0 vmaxpu=2 status=variable daily=Load_shape_res_72 enabled=true
New Load.mv_f0_lv3_f1_c9 phases=1 bus1=mv_f0_lv3_f1_c9.2 kw=1 conn=wye kv=0.23 pf=0.95 model=1 vminpu=0.0 vmaxpu=2 status=variable daily=Load_shape_res_73 enabled=true
New Load.mv_f0_lv3_f1_c10 phases=1 bus1=mv_f0_lv3_f1_c10.1 kw=1 conn=wye kv=0.23 pf=0.95 model=1 vminpu=0.0 vmaxpu=2 status=variable daily=Load_shape_res_74 enabled=true
New Load.mv_f0_lv3_f1_c11 phases=1 bus1=mv_f0_lv3_f1_c11.3 kw=1 conn=wye kv=0.23 pf=0.95 model=1 vminpu=0.0 vmaxpu=2 status=variable daily=Load_shape_res_75 enabled=true
New Load.mv_f0_lv3_f1_c12 phases=1 bus1=mv_f0_lv3_f1_c12.3 kw=1 conn=wye kv=0.23 pf=0.95 model=1 vminpu=0.0 vmaxpu=2 status=variable daily=Load_shape_res_76 enabled=true
New Load.mv_f0_lv3_f1_c13 phases=1 bus1=mv_f0_lv3_f1_c13.2 kw=1 conn=wye kv=0.23 pf=0.95 model=1 vminpu=0.0 vmaxpu=2 status=variable daily=Load_shape_res_77 enabled=true
New Load.mv_f0_lv3_f1_c14 phases=1 bus1=mv_f0_lv3_f1_c14.3 kw=1 conn=wye kv=0.23 pf=0.95 model=1 vminpu=0.0 vmaxpu=2 status=variable daily=Load_shape_res_78 enabled=true
New Load.mv_f0_lv3_f1_c15 phases=1 bus1=mv_f0_lv3_f1_c15.3 kw=1 conn=wye kv=0.23 pf=0.95 model=1 vminpu=0.0 vmaxpu=2 status=variable daily=Load_shape_res_79 enabled=true
New Load.mv_f0_lv3_f1_c16 phases=1 bus1=mv_f0_lv3_f1_c16.3 kw=1 conn=wye kv=0.23 pf=0.95 model=1 vminpu=0.0 vmaxpu=2 status=variable daily=Load_shape_res_80 enabled=true
New Load.mv_f0_lv3_f1_c17 phases=1 bus1=mv_f0_lv3_f1_c17.1 kw=1 conn=wye kv=0.23 pf=0.95 model=1 vminpu=0.0 vmaxpu=2 status=variable daily=Load_shape_res_81 enabled=true
New Load.mv_f0_lv3_f1_c18 phases=1 bus1=mv_f0_lv3_f1_c18.1 kw=1 conn=wye kv=0.23 pf=0.95 model=1 vminpu=0.0 vmaxpu=2 status=variable daily=Load_shape_res_82 enabled=true
New Load.mv_f0_lv3_f1_c19 phases=1 bus1=mv_f0_lv3_f1_c19.2 kw=1 conn=wye kv=0.23 pf=0.95 model=1 vminpu=0.0 vmaxpu=2 status=variable daily=Load_shape_res_83 enabled=true
New Load.mv_f0_lv3_f1_c20 phases=1 bus1=mv_f0_lv3_f1_c20.2 kw=1 conn=wye kv=0.23 pf=0.95 model=1 vminpu=0.0 vmaxpu=2 status=variable daily=Load_shape_res_84 enabled=true
New Load.mv_f0_lv3_f1_c21 phases=1 bus1=mv_f0_lv3_f1_c21.2 kw=1 conn=wye kv=0.23 pf=0.95 model=1 vminpu=0.0 vmaxpu=2 status=variable daily=Load_shape_res_85 enabled=true
New Load.mv_f0_lv3_f1_c22 phases=1 bus1=mv_f0_lv3_f1_c22.3 kw=1 conn=wye kv=0.23 pf=0.95 model=1 vminpu=0.0 vmaxpu=2 status=variable daily=Load_shape_res_86 enabled=true
New Load.mv_f0_lv3_f1_c23 phases=1 bus1=mv_f0_lv3_f1_c23.2 kw=1 conn=wye kv=0.23 pf=0.95 model=1 vminpu=0.0 vmaxpu=2 status=variable daily=Load_shape_res_87 enabled=true
New Load.mv_f0_lv3_f1_c24 phases=1 bus1=mv_f0_lv3_f1_c24.3 kw=1 conn=wye kv=0.23 pf=0.95 model=1 vminpu=0.0 vmaxpu=2 status=variable daily=Load_shape_res_88 enabled=true
New Load.mv_f0_lv3_f1_c25 phases=1 bus1=mv_f0_lv3_f1_c25.3 kw=1 conn=wye kv=0.23 pf=0.95 model=1 vminpu=0.0 vmaxpu=2 status=variable daily=Load_shape_res_89 enabled=true
New Load.mv_f0_lv3_f1_c26 phases=1 bus1=mv_f0_lv3_f1_c26.3 kw=1 conn=wye kv=0.23 pf=0.95 model=1 vminpu=0.0 vmaxpu=2 status=variable daily=Load_shape_res_90 enabled=true
New Load.mv_f0_lv3_f1_c27 phases=1 bus1=mv_f0_lv3_f1_c27.3 kw=1 conn=wye kv=0.23 pf=0.95 model=1 vminpu=0.0 vmaxpu=2 status=variable daily=Load_shape_res_91 enabled=true
New Load.mv_f0_lv3_f1_c28 phases=1 bus1=mv_f0_lv3_f1_c28.2 kw=1 conn=wye kv=0.23 pf=0.95 model=1 vminpu=0.0 vmaxpu=2 status=variable daily=Load_shape_res_92 enabled=true
New Load.mv_f0_lv3_f1_c29 phases=1 bus1=mv_f0_lv3_f1_c29.3 kw=1 conn=wye kv=0.23 pf=0.95 model=1 vminpu=0.0 vmaxpu=2 status=variable daily=Load_shape_res_93 enabled=true
New Load.mv_f0_lv3_f1_c30 phases=1 bus1=mv_f0_lv3_f1_c30.1 kw=1 conn=wye kv=0.23 pf=0.95 model=1 vminpu=0.0 vmaxpu=2 status=variable daily=Load_shape_res_94 enabled=true
New Load.mv_f0_lv3_f1_c31 phases=1 bus1=mv_f0_lv3_f1_c31.2 kw=1 conn=wye kv=0.23 pf=0.95 model=1 vminpu=0.0 vmaxpu=2 status=variable daily=Load_shape_res_95 enabled=true
New Load.mv_f0_lv3_f1_c32 phases=1 bus1=mv_f0_lv3_f1_c32.1 kw=1 conn=wye kv=0.23 pf=0.95 model=1 vminpu=0.0 vmaxpu=2 status=variable daily=Load_shape_res_96 enabled=true
New Load.mv_f0_lv3_f1_c33 phases=1 bus1=mv_f0_lv3_f1_c33.1 kw=1 conn=wye kv=0.23 pf=0.95 model=1 vminpu=0.0 vmaxpu=2 status=variable daily=Load_shape_res_97 enabled=true
New Load.mv_f0_lv3_f1_c34 phases=1 bus1=mv_f0_lv3_f1_c34.1 kw=1 conn=wye kv=0.23 pf=0.95 model=1 vminpu=0.0 vmaxpu=2 status=variable daily=Load_shape_res_98 enabled=true
New Load.mv_f0_lv3_f1_c35 phases=1 bus1=mv_f0_lv3_f1_c35.3 kw=1 conn=wye kv=0.23 pf=0.95 model=1 vminpu=0.0 vmaxpu=2 status=variable daily=Load_shape_res_99 enabled=true
New Load.mv_f0_lv3_f1_c36 phases=1 bus1=mv_f0_lv3_f1_c36.3 kw=1 conn=wye kv=0.23 pf=0.95 model=1 vminpu=0.0 vmaxpu=2 status=variable daily=Load_shape_res_100 enabled=true
New Load.mv_f0_lv3_f1_c37 phases=1 bus1=mv_f0_lv3_f1_c37.2 kw=1 conn=wye kv=0.23 pf=0.95 model=1 vminpu=0.0 vmaxpu=2 status=variable daily=Load_shape_res_101 enabled=true
New Load.mv_f0_lv3_f1_c38 phases=1 bus1=mv_f0_lv3_f1_c38.1 kw=1 conn=wye kv=0.23 pf=0.95 model=1 vminpu=0.0 vmaxpu=2 status=variable daily=Load_shape_res_102 enabled=true
New Load.mv_f0_lv3_f1_c39 phases=1 bus1=mv_f0_lv3_f1_c39.1 kw=1 conn=wye kv=0.23 pf=0.95 model=1 vminpu=0.0 vmaxpu=2 status=variable daily=Load_shape_res_103 enabled=true
New Load.mv_f0_lv3_f2_c0 phases=1 bus1=mv_f0_lv3_f2_c0.1 kw=1 conn=wye kv=0.23 pf=0.95 model=1 vminpu=0.0 vmaxpu=2 status=variable daily=Load_shape_res_104 enabled=true
New Load.mv_f0_lv3_f2_c1 phases=1 bus1=mv_f0_lv3_f2_c1.3 kw=1 conn=wye kv=0.23 pf=0.95 model=1 vminpu=0.0 vmaxpu=2 status=variable daily=Load_shape_res_105 enabled=true
New Load.mv_f0_lv3_f2_c2 phases=1 bus1=mv_f0_lv3_f2_c2.1 kw=1 conn=wye kv=0.23 pf=0.95 model=1 vminpu=0.0 vmaxpu=2 status=variable daily=Load_shape_res_106 enabled=true
New Load.mv_f0_lv3_f2_c3 phases=1 bus1=mv_f0_lv3_f2_c3.3 kw=1 conn=wye kv=0.23 pf=0.95 model=1 vminpu=0.0 vmaxpu=2 status=variable daily=Load_shape_res_107 enabled=true
New Load.mv_f0_lv3_f2_c4 phases=1 bus1=mv_f0_lv3_f2_c4.3 kw=1 conn=wye kv=0.23 pf=0.95 model=1 vminpu=0.0 vmaxpu=2 status=variable daily=Load_shape_res_108 enabled=true
New Load.mv_f0_lv3_f2_c5 phases=1 bus1=mv_f0_lv3_f2_c5.2 kw=1 conn=wye kv=0.23 pf=0.95 model=1 vminpu=0.0 vmaxpu=2 status=variable daily=Load_shape_res_109 enabled=true
New Load.mv_f0_lv3_f2_c6 phases=1 bus1=mv_f0_lv3_f2_c6.2 kw=1 conn=wye kv=0.23 pf=0.95 model=1 vminpu=0.0 vmaxpu=2 status=variable daily=Load_shape_res_110 enabled=true
New Load.mv_f0_lv3_f2_c7 phases=1 bus1=mv_f0_lv3_f2_c7.3 kw=1 conn=wye kv=0.23 pf=0.95 model=1 vminpu=0.0 vmaxpu=2 status=variable daily=Load_shape_res_111 enabled=true
New Load.mv_f0_lv3_f2_c8 phases=1 bus1=mv_f0_lv3_f2_c8.1 kw=1 conn=wye kv=0.23 pf=0.95 model=1 vminpu=0.0 vmaxpu=2 status=variable daily=Load_shape_res_112 enabled=true
New Load.mv_f0_lv3_f2_c9 phases=1 bus1=mv_f0_lv3_f2_c9.3 kw=1 conn=wye kv=0.23 pf=0.95 model=1 vminpu=0.0 vmaxpu=2 status=variable daily=Load_shape_res_113 enabled=true
New Load.mv_f0_lv3_f2_c10 phases=1 bus1=mv_f0_lv3_f2_c10.2 kw=1 conn=wye kv=0.23 pf=0.95 model=1 vminpu=0.0 vmaxpu=2 status=variable daily=Load_shape_res_114 enabled=true
New Load.mv_f0_lv3_f2_c11 phases=1 bus1=mv_f0_lv3_f2_c11.2 kw=1 conn=wye kv=0.23 pf=0.95 model=1 vminpu=0.0 vmaxpu=2 status=variable daily=Load_shape_res_115 enabled=true
New Load.mv_f0_lv3_f2_c12 phases=1 bus1=mv_f0_lv3_f2_c12.3 kw=1 conn=wye kv=0.23 pf=0.95 model=1 vminpu=0.0 vmaxpu=2 status=variable daily=Load_shape_res_116 enabled=true
New Load.mv_f0_lv3_f2_c13 phases=1 bus1=mv_f0_lv3_f2_c13.3 kw=1 conn=wye kv=0.23 pf=0.95 model=1 vminpu=0.0 vmaxpu=2 status=variable daily=Load_shape_res_117 enabled=true
New Load.mv_f0_lv3_f2_c14 phases=1 bus1=mv_f0_lv3_f2_c14.3 kw=1 conn=wye kv=0.23 pf=0.95 model=1 vminpu=0.0 vmaxpu=2 status=variable daily=Load_shape_res_118 enabled=true
New Load.mv_f0_lv3_f2_c15 phases=1 bus1=mv_f0_lv3_f2_c15.1 kw=1 conn=wye kv=0.23 pf=0.95 model=1 vminpu=0.0 vmaxpu=2 status=variable daily=Load_shape_res_119 enabled=true
New Load.mv_f0_lv3_f2_c16 phases=1 bus1=mv_f0_lv3_f2_c16.1 kw=1 conn=wye kv=0.23 pf=0.95 model=1 vminpu=0.0 vmaxpu=2 status=variable daily=Load_shape_res_120 enabled=true
New Load.mv_f0_lv3_f2_c17 phases=1 bus1=mv_f0_lv3_f2_c17.2 kw=1 conn=wye kv=0.23 pf=0.95 model=1 vminpu=0.0 vmaxpu=2 status=variable daily=Load_shape_res_121 enabled=true
New Load.mv_f0_lv3_f2_c18 phases=1 bus1=mv_f0_lv3_f2_c18.1 kw=1 conn=wye kv=0.23 pf=0.95 model=1 vminpu=0.0 vmaxpu=2 status=variable daily=Load_shape_res_122 enabled=true
New Load.mv_f0_lv3_f2_c19 phases=1 bus1=mv_f0_lv3_f2_c19.1 kw=1 conn=wye kv=0.23 pf=0.95 model=1 vminpu=0.0 vmaxpu=2 status=variable daily=Load_shape_res_123 enabled=true
New Load.mv_f0_lv3_f2_c20 phases=1 bus1=mv_f0_lv3_f2_c20.1 kw=1 conn=wye kv=0.23 pf=0.95 model=1 vminpu=0.0 vmaxpu=2 status=variable daily=Load_shape_res_124 enabled=true
New Load.mv_f0_lv3_f2_c21 phases=1 bus1=mv_f0_lv3_f2_c21.1 kw=1 conn=wye kv=0.23 pf=0.95 model=1 vminpu=0.0 vmaxpu=2 status=variable daily=Load_shape_res_125 enabled=true
New Load.mv_f0_lv3_f2_c22 phases=1 bus1=mv_f0_lv3_f2_c22.1 kw=1 conn=wye kv=0.23 pf=0.95 model=1 vminpu=0.0 vmaxpu=2 status=variable daily=Load_shape_res_126 enabled=true
New Load.mv_f0_lv3_f2_c23 phases=1 bus1=mv_f0_lv3_f2_c23.1 kw=1 conn=wye kv=0.23 pf=0.95 model=1 vminpu=0.0 vmaxpu=2 status=variable daily=Load_shape_res_127 enabled=true
New Load.mv_f0_lv3_f2_c24 phases=1 bus1=mv_f0_lv3_f2_c24.3 kw=1 conn=wye kv=0.23 pf=0.95 model=1 vminpu=0.0 vmaxpu=2 status=variable daily=Load_shape_res_128 enabled=true
New Load.mv_f0_lv3_f2_c25 phases=1 bus1=mv_f0_lv3_f2_c25.1 kw=1 conn=wye kv=0.23 pf=0.95 model=1 vminpu=0.0 vmaxpu=2 status=variable daily=Load_shape_res_129 enabled=true
New Load.mv_f0_lv3_f2_c26 phases=1 bus1=mv_f0_lv3_f2_c26.1 kw=1 conn=wye kv=0.23 pf=0.95 model=1 vminpu=0.0 vmaxpu=2 status=variable daily=Load_shape_res_130 enabled=true
New Load.mv_f0_lv3_f2_c27 phases=1 bus1=mv_f0_lv3_f2_c27.1 kw=1 conn=wye kv=0.23 pf=0.95 model=1 vminpu=0.0 vmaxpu=2 status=variable daily=Load_shape_res_131 enabled=true
New Load.mv_f0_lv3_f2_c28 phases=1 bus1=mv_f0_lv3_f2_c28.1 kw=1 conn=wye kv=0.23 pf=0.95 model=1 vminpu=0.0 vmaxpu=2 status=variable daily=Load_shape_res_132 enabled=true
New Load.mv_f0_lv3_f2_c29 phases=1 bus1=mv_f0_lv3_f2_c29.1 kw=1 conn=wye kv=0.23 pf=0.95 model=1 vminpu=0.0 vmaxpu=2 status=variable daily=Load_shape_res_133 enabled=true
New Load.mv_f0_lv3_f2_c30 phases=1 bus1=mv_f0_lv3_f2_c30.3 kw=1 conn=wye kv=0.23 pf=0.95 model=1 vminpu=0.0 vmaxpu=2 status=variable daily=Load_shape_res_134 enabled=true
New Load.mv_f0_lv3_f2_c31 phases=1 bus1=mv_f0_lv3_f2_c31.2 kw=1 conn=wye kv=0.23 pf=0.95 model=1 vminpu=0.0 vmaxpu=2 status=variable daily=Load_shape_res_135 enabled=true
New Load.mv_f0_lv3_f2_c32 phases=1 bus1=mv_f0_lv3_f2_c32.2 kw=1 conn=wye kv=0.23 pf=0.95 model=1 vminpu=0.0 vmaxpu=2 status=variable daily=Load_shape_res_136 enabled=true
New Load.mv_f0_lv3_f2_c33 phases=1 bus1=mv_f0_lv3_f2_c33.2 kw=1 conn=wye kv=0.23 pf=0.95 model=1 vminpu=0.0 vmaxpu=2 status=variable daily=Load_shape_res_137 enabled=true
New Load.mv_f0_lv3_f2_c34 phases=1 bus1=mv_f0_lv3_f2_c34.3 kw=1 conn=wye kv=0.23 pf=0.95 model=1 vminpu=0.0 vmaxpu=2 status=variable daily=Load_shape_res_138 enabled=true
New Load.mv_f0_lv3_f2_c35 phases=1 bus1=mv_f0_lv3_f2_c35.2 kw=1 conn=wye kv=0.23 pf=0.95 model=1 vminpu=0.0 vmaxpu=2 status=variable daily=Load_shape_res_139 enabled=true
New Load.mv_f0_lv3_f2_c36 phases=1 bus1=mv_f0_lv3_f2_c36.1 kw=1 conn=wye kv=0.23 pf=0.95 model=1 vminpu=0.0 vmaxpu=2 status=variable daily=Load_shape_res_140 enabled=true
New Load.mv_f0_lv3_f2_c37 phases=1 bus1=mv_f0_lv3_f2_c37.3 kw=1 conn=wye kv=0.23 pf=0.95 model=1 vminpu=0.0 vmaxpu=2 status=variable daily=Load_shape_res_141 enabled=true
New Load.mv_f0_lv3_f2_c38 phases=1 bus1=mv_f0_lv3_f2_c38.1 kw=1 conn=wye kv=0.23 pf=0.95 model=1 vminpu=0.0 vmaxpu=2 status=variable daily=Load_shape_res_142 enabled=true
New Load.mv_f0_lv3_f2_c39 phases=1 bus1=mv_f0_lv3_f2_c39.2 kw=1 conn=wye kv=0.23 pf=0.95 model=1 vminpu=0.0 vmaxpu=2 status=variable daily=Load_shape_res_143 enabled=true
New Load.mv_f0_lv3_f3_c0 phases=1 bus1=mv_f0_lv3_f3_c0.1 kw=1 conn=wye kv=0.23 pf=0.95 model=1 vminpu=0.0 vmaxpu=2 status=variable daily=Load_shape_res_144 enabled=true
New Load.mv_f0_lv3_f3_c1 phases=1 bus1=mv_f0_lv3_f3_c1.1 kw=1 conn=wye kv=0.23 pf=0.95 model=1 vminpu=0.0 vmaxpu=2 status=variable daily=Load_shape_res_145 enabled=true
New Load.mv_f0_lv3_f3_c2 phases=1 bus1=mv_f0_lv3_f3_c2.3 kw=1 conn=wye kv=0.23 pf=0.95 model=1 vminpu=0.0 vmaxpu=2 status=variable daily=Load_shape_res_146 enabled=true
New Load.mv_f0_lv3_f3_c3 phases=1 bus1=mv_f0_lv3_f3_c3.1 kw=1 conn=wye kv=0.23 pf=0.95 model=1 vminpu=0.0 vmaxpu=2 status=variable daily=Load_shape_res_147 enabled=true
New Load.mv_f0_lv3_f3_c4 phases=1 bus1=mv_f0_lv3_f3_c4.2 kw=1 conn=wye kv=0.23 pf=0.95 model=1 vminpu=0.0 vmaxpu=2 status=variable daily=Load_shape_res_148 enabled=true
New Load.mv_f0_lv4_f0_c0 phases=1 bus1=mv_f0_lv4_f0_c0.1 kw=1 conn=wye kv=0.23 pf=0.95 model=1 vminpu=0.0 vmaxpu=2 status=variable daily=Load_shape_res_149 enabled=true
New Load.mv_f0_lv5_f0_c0 phases=3 bus1=mv_f0_lv5_f0_c0.1.2.3 kw=1 conn=wye kv=0.4 pf=0.95 model=1 vminpu=0.0 vmaxpu=2 status=variable daily=Load_shape_com_150 enabled=true
New Load.mv_f0_lv6_f0_c0 phases=3 bus1=mv_f0_lv6_f0_c0.1.2.3 kw=1 conn=wye kv=0.4 pf=0.95 model=1 vminpu=0.0 vmaxpu=2 status=variable daily=Load_shape_com_151 enabled=true
New Load.mv_f0_lv7_f0_c0 phases=1 bus1=mv_f0_lv7_f0_c0.2 kw=1 conn=wye kv=0.23 pf=0.95 model=1 vminpu=0.0 vmaxpu=2 status=variable daily=Load_shape_res_152 enabled=true
New Load.mv_f0_lv7_f0_c1 phases=1 bus1=mv_f0_lv7_f0_c1.1 kw=1 conn=wye kv=0.23 pf=0.95 model=1 vminpu=0.0 vmaxpu=2 status=variable daily=Load_shape_res_153 enabled=true
New Load.mv_f0_lv7_f0_c2 phases=1 bus1=mv_f0_lv7_f0_c2.3 kw=1 conn=wye kv=0.23 pf=0.95 model=1 vminpu=0.0 vmaxpu=2 status=variable daily=Load_shape_res_154 enabled=true
New Load.mv_f0_lv7_f0_c3 phases=1 bus1=mv_f0_lv7_f0_c3.3 kw=1 conn=wye kv=0.23 pf=0.95 model=1 vminpu=0.0 vmaxpu=2 status=variable daily=Load_shape_res_155 enabled=true
New Load.mv_f0_lv7_f0_c4 phases=1 bus1=mv_f0_lv7_f0_c4.3 kw=1 conn=wye kv=0.23 pf=0.95 model=1 vminpu=0.0 vmaxpu=2 status=variable daily=Load_shape_res_156 enabled=true
New Load.mv_f0_lv7_f0_c5 phases=1 bus1=mv_f0_lv7_f0_c5.2 kw=1 conn=wye kv=0.23 pf=0.95 model=1 vminpu=0.0 vmaxpu=2 status=variable daily=Load_shape_res_157 enabled=true
New Load.mv_f0_lv7_f0_c6 phases=1 bus1=mv_f0_lv7_f0_c6.2 kw=1 conn=wye kv=0.23 pf=0.95 model=1 vminpu=0.0 vmaxpu=2 status=variable daily=Load_shape_res_158 enabled=true
New Load.mv_f0_lv7_f0_c7 phases=1 bus1=mv_f0_lv7_f0_c7.3 kw=1 conn=wye kv=0.23 pf=0.95 model=1 vminpu=0.0 vmaxpu=2 status=variable daily=Load_shape_res_159 enabled=true
New Load.mv_f0_lv7_f0_c8 phases=1 bus1=mv_f0_lv7_f0_c8.1 kw=1 conn=wye kv=0.23 pf=0.95 model=1 vminpu=0.0 vmaxpu=2 status=variable daily=Load_shape_res_160 enabled=true
New Load.mv_f0_lv7_f0_c9 phases=1 bus1=mv_f0_lv7_f0_c9.1 kw=1 conn=wye kv=0.23 pf=0.95 model=1 vminpu=0.0 vmaxpu=2 status=variable daily=Load_shape_res_161 enabled=true
New Load.mv_f0_lv7_f0_c10 phases=1 bus1=mv_f0_lv7_f0_c10.2 kw=1 conn=wye kv=0.23 pf=0.95 model=1 vminpu=0.0 vmaxpu=2 status=variable daily=Load_shape_res_162 enabled=true
New Load.mv_f0_lv7_f0_c11 phases=1 bus1=mv_f0_lv7_f0_c11.2 kw=1 conn=wye kv=0.23 pf=0.95 model=1 vminpu=0.0 vmaxpu=2 status=variable daily=Load_shape_res_163 enabled=true
New Load.mv_f0_lv7_f0_c12 phases=1 bus1=mv_f0_lv7_f0_c12.2 kw=1 conn=wye kv=0.23 pf=0.95 model=1 vminpu=0.0 vmaxpu=2 status=variable daily=Load_shape_res_164 enabled=true
New Load.mv_f0_lv7_f0_c13 phases=1 bus1=mv_f0_lv7_f0_c13.3 kw=1 conn=wye kv=0.23 pf=0.95 model=1 vminpu=0.0 vmaxpu=2 status=variable daily=Load_shape_res_165 enabled=true
New Load.mv_f0_lv7_f0_c14 phases=1 bus1=mv_f0_lv7_f0_c14.3 kw=1 conn=wye kv=0.23 pf=0.95 model=1 vminpu=0.0 vmaxpu=2 status=variable daily=Load_shape_res_166 enabled=true
New Load.mv_f0_lv7_f0_c15 phases=1 bus1=mv_f0_lv7_f0_c15.3 kw=1 conn=wye kv=0.23 pf=0.95 model=1 vminpu=0.0 vmaxpu=2 status=variable daily=Load_shape_res_167 enabled=true
New Load.mv_f0_lv7_f0_c16 phases=1 bus1=mv_f0_lv7_f0_c16.3 kw=1 conn=wye kv=0.23 pf=0.95 model=1 vminpu=0.0 vmaxpu=2 status=variable daily=Load_shape_res_168 enabled=true
New Load.mv_f0_lv7_f0_c17 phases=1 bus1=mv_f0_lv7_f0_c17.3 kw=1 conn=wye kv=0.23 pf=0.95 model=1 vminpu=0.0 vmaxpu=2 status=variable daily=Load_shape_res_169 enabled=true
New Load.mv_f0_lv7_f0_c18 phases=1 bus1=mv_f0_lv7_f0_c18.1 kw=1 conn=wye kv=0.23 pf=0.95 model=1 vminpu=0.0 vmaxpu=2 status=variable daily=Load_shape_res_170 enabled=true
New Load.mv_f0_lv7_f0_c19 phases=1 bus1=mv_f0_lv7_f0_c19.2 kw=1 conn=wye kv=0.23 pf=0.95 model=1 vminpu=0.0 vmaxpu=2 status=variable daily=Load_shape_res_171 enabled=true
New Load.mv_f0_lv7_f0_c20 phases=1 bus1=mv_f0_lv7_f0_c20.3 kw=1 conn=wye kv=0.23 pf=0.95 model=1 vminpu=0.0 vmaxpu=2 status=variable daily=Load_shape_res_172 enabled=true
New Load.mv_f0_lv7_f0_c21 phases=1 bus1=mv_f0_lv7_f0_c21.2 kw=1 conn=wye kv=0.23 pf=0.95 model=1 vminpu=0.0 vmaxpu=2 status=variable daily=Load_shape_res_173 enabled=true
New Load.mv_f0_lv7_f0_c22 phases=1 bus1=mv_f0_lv7_f0_c22.2 kw=1 conn=wye kv=0.23 pf=0.95 model=1 vminpu=0.0 vmaxpu=2 status=variable daily=Load_shape_res_174 enabled=true
New Load.mv_f0_lv7_f0_c23 phases=1 bus1=mv_f0_lv7_f0_c23.2 kw=1 conn=wye kv=0.23 pf=0.95 model=1 vminpu=0.0 vmaxpu=2 status=variable daily=Load_shape_res_175 enabled=true
New Load.mv_f0_lv7_f0_c24 phases=1 bus1=mv_f0_lv7_f0_c24.2 kw=1 conn=wye kv=0.23 pf=0.95 model=1 vminpu=0.0 vmaxpu=2 status=variable daily=Load_shape_res_176 enabled=true
New Load.mv_f0_lv7_f0_c25 phases=1 bus1=mv_f0_lv7_f0_c25.1 kw=1 conn=wye kv=0.23 pf=0.95 model=1 vminpu=0.0 vmaxpu=2 status=variable daily=Load_shape_res_177 enabled=true
New Load.mv_f0_lv7_f0_c26 phases=1 bus1=mv_f0_lv7_f0_c26.1 kw=1 conn=wye kv=0.23 pf=0.95 model=1 vminpu=0.0 vmaxpu=2 status=variable daily=Load_shape_res_178 enabled=true
New Load.mv_f0_lv7_f0_c27 phases=1 bus1=mv_f0_lv7_f0_c27.2 kw=1 conn=wye kv=0.23 pf=0.95 model=1 vminpu=0.0 vmaxpu=2 status=variable daily=Load_shape_res_179 enabled=true
New Load.mv_f0_lv7_f0_c28 phases=1 bus1=mv_f0_lv7_f0_c28.3 kw=1 conn=wye kv=0.23 pf=0.95 model=1 vminpu=0.0 vmaxpu=2 status=variable daily=Load_shape_res_180 enabled=true
New Load.mv_f0_lv7_f0_c29 phases=1 bus1=mv_f0_lv7_f0_c29.1 kw=1 conn=wye kv=0.23 pf=0.95 model=1 vminpu=0.0 vmaxpu=2 status=variable daily=Load_shape_res_181 enabled=true
New Load.mv_f0_lv7_f0_c30 phases=1 bus1=mv_f0_lv7_f0_c30.2 kw=1 conn=wye kv=0.23 pf=0.95 model=1 vminpu=0.0 vmaxpu=2 status=variable daily=Load_shape_res_182 enabled=true
New Load.mv_f0_lv7_f0_c31 phases=1 bus1=mv_f0_lv7_f0_c31.3 kw=1 conn=wye kv=0.23 pf=0.95 model=1 vminpu=0.0 vmaxpu=2 status=variable daily=Load_shape_res_183 enabled=true
New Load.mv_f0_lv7_f0_c32 phases=1 bus1=mv_f0_lv7_f0_c32.1 kw=1 conn=wye kv=0.23 pf=0.95 model=1 vminpu=0.0 vmaxpu=2 status=variable daily=Load_shape_res_184 enabled=true
New Load.mv_f0_lv7_f0_c33 phases=1 bus1=mv_f0_lv7_f0_c33.3 kw=1 conn=wye kv=0.23 pf=0.95 model=1 vminpu=0.0 vmaxpu=2 status=variable daily=Load_shape_res_185 enabled=true
New Load.mv_f0_lv7_f0_c34 phases=1 bus1=mv_f0_lv7_f0_c34.3 kw=1 conn=wye kv=0.23 pf=0.95 model=1 vminpu=0.0 vmaxpu=2 status=variable daily=Load_shape_res_186 enabled=true
New Load.mv_f0_lv7_f0_c35 phases=1 bus1=mv_f0_lv7_f0_c35.2 kw=1 conn=wye kv=0.23 pf=0.95 model=1 vminpu=0.0 vmaxpu=2 status=variable daily=Load_shape_res_187 enabled=true
New Load.mv_f0_lv7_f0_c36 phases=1 bus1=mv_f0_lv7_f0_c36.2 kw=1 conn=wye kv=0.23 pf=0.95 model=1 vminpu=0.0 vmaxpu=2 status=variable daily=Load_shape_res_188 enabled=true
New Load.mv_f0_lv7_f0_c37 phases=1 bus1=mv_f0_lv7_f0_c37.3 kw=1 conn=wye kv=0.23 pf=0.95 model=1 vminpu=0.0 vmaxpu=2 status=variable daily=Load_shape_res_189 enabled=true
New Load.mv_f0_lv7_f0_c38 phases=1 bus1=mv_f0_lv7_f0_c38.1 kw=1 conn=wye kv=0.23 pf=0.95 model=1 vminpu=0.0 vmaxpu=2 status=variable daily=Load_shape_res_190 enabled=true
New Load.mv_f0_lv7_f0_c39 phases=1 bus1=mv_f0_lv7_f0_c39.3 kw=1 conn=wye kv=0.23 pf=0.95 model=1 vminpu=0.0 vmaxpu=2 status=variable daily=Load_shape_res_191 enabled=true
New Load.mv_f0_lv7_f1_c0 phases=1 bus1=mv_f0_lv7_f1_c0.2 kw=1 conn=wye kv=0.23 pf=0.95 model=1 vminpu=0.0 vmaxpu=2 status=variable daily=Load_shape_res_192 enabled=true
New Load.mv_f0_lv7_f1_c1 phases=1 bus1=mv_f0_lv7_f1_c1.3 kw=1 conn=wye kv=0.23 pf=0.95 model=1 vminpu=0.0 vmaxpu=2 status=variable daily=Load_shape_res_193 enabled=true
New Load.mv_f0_lv7_f1_c2 phases=1 bus1=mv_f0_lv7_f1_c2.3 kw=1 conn=wye kv=0.23 pf=0.95 model=1 vminpu=0.0 vmaxpu=2 status=variable daily=Load_shape_res_194 enabled=true
New Load.mv_f0_lv7_f1_c3 phases=1 bus1=mv_f0_lv7_f1_c3.1 kw=1 conn=wye kv=0.23 pf=0.95 model=1 vminpu=0.0 vmaxpu=2 status=variable daily=Load_shape_res_195 enabled=true
New Load.mv_f0_lv7_f1_c4 phases=1 bus1=mv_f0_lv7_f1_c4.1 kw=1 conn=wye kv=0.23 pf=0.95 model=1 vminpu=0.0 vmaxpu=2 status=variable daily=Load_shape_res_196 enabled=true
New Load.mv_f0_lv7_f1_c5 phases=1 bus1=mv_f0_lv7_f1_c5.2 kw=1 conn=wye kv=0.23 pf=0.95 model=1 vminpu=0.0 vmaxpu=2 status=variable daily=Load_shape_res_197 enabled=true
New Load.mv_f0_lv7_f1_c6 phases=1 bus1=mv_f0_lv7_f1_c6.1 kw=1 conn=wye kv=0.23 pf=0.95 model=1 vminpu=0.0 vmaxpu=2 status=variable daily=Load_shape_res_198 enabled=true
New Load.mv_f0_lv7_f1_c7 phases=1 bus1=mv_f0_lv7_f1_c7.3 kw=1 conn=wye kv=0.23 pf=0.95 model=1 vminpu=0.0 vmaxpu=2 status=variable daily=Load_shape_res_199 enabled=true
...
